management.sch: written by SWAT+ editor on 2022-06-17 22:42
name                       numb_ops  numb_auto            op_typ       mon       day        hu_sch          op_data1          op_data2      op_data3  
C2A3                             28          0  
                                                            fert         4        15       0.00000          46_00_00             basal     337.00000  
                                                            till         4        30       0.00000          diskplow              null       0.00000  
                                                            plnt         5         7       0.00000              corn              null       0.00000  
                                                            fert         5         7       0.00000          08_15_00         broadcast     225.00000  
                                                            till         6        10       0.00000          culmulch              null       0.00000  
                                                            hvkl        10        15       0.00000              corn             grain       0.00000  
                                                            fert        11         1       0.00000           beef_fr         fertigate     328.00000  
                                                            fert        11         1       0.00000          dairy_fr         fertigate    3148.00000  
                                                            till        11         5       0.00000          chisplow              null       0.00000  
                                                            fert         4        15       0.00000          46_00_00         broadcast     112.00000  
                                                            fert         4        25       0.00000           beef_fr         fertigate     328.00000  
                                                            fert         4        25       0.00000          dairy_fr         fertigate    3148.00000  
                                                            till         4        30       0.00000          diskplow              null       0.00000  
                                                            plnt         5         7       0.00000            corn90              null       0.00000  
                                                            fert         5         7       0.00000          08_15_00         broadcast     112.00000  
                                                            till         6        10       0.00000          culmulch              null       0.00000  
                                                            hvkl         9        15       0.00000            corn90            silage       0.00000  
                                                            till         4        20       0.00000          chisplow              null       0.00000  
                                                            till         4        30       0.00000          diskplow              null       0.00000  
                                                            plnt         5         7       0.00000              alfa              null       0.00000  
                                                            harv         9        10       0.00000              alfa       hay_cut_low       0.00000  
                                                            harv         6        25       0.00000              alfa       hay_cut_low       0.00000  
                                                            harv         8        10       0.00000              alfa       hay_cut_low       0.00000  
                                                            harv         9        10       0.00000              alfa       hay_cut_low       0.00000  
                                                            harv         6        25       0.00000              alfa       hay_cut_low       0.00000  
                                                            harv         8        10       0.00000              alfa       hay_cut_low       0.00000  
                                                            harv         9        10       0.00000              alfa       hay_cut_low       0.00000  
                                                            till        11         1       0.00000          mldboard              null       0.00000  
C3S1A3                           40          0  
                                                            fert         4        25       0.00000          46_00_00             basal     337.00000  
                                                            till         4        30       0.00000          diskplow              null       0.00000  
                                                            fert         5         7       0.00000          08_15_00         broadcast     225.00000  
                                                            plnt         5         7       0.00000              corn              null       0.00000  
                                                            till         6        10       0.00000          culmulch              null       0.00000  
                                                            hvkl        10        15       0.00000              corn             grain       0.00000  
                                                            fert        11         1       0.00000           beef_fr         fertigate     328.00000  
                                                            fert        11         1       0.00000          dairy_fr         fertigate    3148.00000  
                                                            till        11         5       0.00000          chisplow              null       0.00000  
                                                            fert         4        15       0.00000          46_00_00             basal     112.00000  
                                                            fert         4        25       0.00000          dairy_fr         fertigate    3148.00000  
                                                            fert         4        25       0.00000           beef_fr         fertigate     328.00000  
                                                            till         4        30       0.00000          diskplow              null       0.00000  
                                                            plnt         5         7       0.00000            corn90              null       0.00000  
                                                            fert         5         7       0.00000          08_15_00         broadcast     112.00000  
                                                            till         6        10       0.00000          culmulch              null       0.00000  
                                                            hvkl         9        15       0.00000            corn90            silage       0.00000  
                                                            till         4        20       0.00000          chisplow              null       0.00000  
                                                            fert         5        10       0.00000          08_15_00             basal     225.00000  
                                                            till         5        15       0.00000          diskplow              null       0.00000  
                                                            plnt         5        20       0.00000              soyb              null       0.00000  
                                                            hvkl        10        15       0.00000              soyb             grain       0.00000  
                                                            till         4        20       0.00000          chisplow              null       0.00000  
                                                            fert         4        25       0.00000          46_00_00             basal     337.00000  
                                                            till         4        30       0.00000          diskplow              null       0.00000  
                                                            plnt         5         7       0.00000            corn90              null       0.00000  
                                                            fert         5         7       0.00000          08_15_00         broadcast     225.00000  
                                                            till         6        10       0.00000          culmulch              null       0.00000  
                                                            hvkl        10        15       0.00000              corn             grain       0.00000  
                                                            till         4        20       0.00000          chisplow              null       0.00000  
                                                            till         4        30       0.00000          diskplow              null       0.00000  
                                                            plnt         5         7       0.00000              alfa              null       0.00000  
                                                            harv         9        10       0.00000              alfa       hay_cut_low       0.00000  
                                                            harv         6        25       0.00000              alfa       hay_cut_low       0.00000  
                                                            harv         8        10       0.00000              alfa       hay_cut_low       0.00000  
                                                            harv         9        10       0.00000              alfa       hay_cut_low       0.00000  
                                                            harv         6        25       0.00000              alfa       hay_cut_low       0.00000  
                                                            harv         8        10       0.00000              alfa       hay_cut_low       0.00000  
                                                            harv         9        10       0.00000              alfa       hay_cut_low       0.00000  
                                                            till        11         1       0.00000          mldboard              null       0.00000  
C1S1                             12          0  
                                                            till         4        20       0.00000          chisplow              null       0.00000  
                                                            fert         4        25       0.00000          46_00_00             basal     337.00000  
                                                            till         4        30       0.00000          diskplow              null       0.00000  
                                                            plnt         5         7       0.00000              corn              null       0.00000  
                                                            fert         5         7       0.00000          08_15_00         broadcast     225.00000  
                                                            till         6        10       0.00000          culmulch              null       0.00000  
                                                            hvkl        10        15       0.00000              corn             grain       0.00000  
                                                            till         4        20       0.00000          chisplow              null       0.00000  
                                                            fert         5        10       0.00000          08_15_00             basal     225.00000  
                                                            till         5        15       0.00000          diskplow              null       0.00000  
                                                            plnt         5        20       0.00000              soyb              null       0.00000  
                                                            hvkl        10        15       0.00000              soyb             grain       0.00000  
