hmd.cli: Relative humidity file names - file written by SWAT+ editor 2020-04-29 16:19:09.069198
filename
LiYang.HMD