pcp.cli: Precipitation file names - file written by SWAT+ editor 2020-04-29 16:19:09.076143
filename
LianYuQiao.pcp