slr.cli: Solar radiation file names - file written by SWAT+ editor 2020-04-29 16:19:09.081167
filename
LiYang.slr