tmp.cli: Temperature file names - file written by SWAT+ editor 2020-04-29 16:19:09.086116
filename
LiYang.tmp