wnd.cli: Wind speed file names - file written by SWAT+ editor 2020-04-29 16:19:09.091110
filename
LiYang.WND