Exported_ManagementSchedules_operation-zhulj.sch: written by SWAT+ editor on 2020-05-24 20:26
name                       numb_ops  numb_auto            op_typ       mon       day        hu_sch          op_data1          op_data2      op_data3  
ricewheat_rot                    22          1  
                                                        irr_str8  
                                                            fert         3        10       0.00000              urea         broadcast     180.00000  
                                                            hvkl         5         1       0.00000              wwht             grain       0.00000  
                                                            till         5         8       0.00000          sprgplow              null       0.00000  
                                                            fert         5        10       0.00000          20_20_00             basal     780.00000  
                                                            fert         5        10       0.00000           veal_fr             basal    3000.00000  
                                                            till         5        11       0.00000            harrow              null       0.00000  
                                                            irrm         5        12       0.00000              drip              null       0.00000  
                                                            plnt         5        15       0.00000              rice              null       0.00000  
                                                            irrm         5        25       0.00000    sprinkler_high              null       0.00000  
                                                            fert         5        30       0.00000              urea              null     240.00000  
                                                            irrm         6         3       0.00000     sprinkler_med              null       0.00000  
                                                            irrm         7        10       0.00000    sprinkler_high              null       0.00000  
                                                            fert         7        13       0.00000          20_20_00         broadcast     600.00000  
                                                            fert         7        20       0.00000              urea              null     180.00000  
                                                            irrm         7        26       0.00000    sprinkler_high              null       0.00000  
                                                            irrm         8         5       0.00000    sprinkler_high              null       0.00000  
                                                            irrm         8        14       0.00000     sprinkler_med              null       0.00000  
                                                            hvkl         8        30       0.00000              rice             grain       0.00000  
                                                            till         9        15       0.00000          fallplow              null       0.00000  
                                                            fert         9        20       0.00000           veal_fr              null    3000.00000  
                                                            fert         9        20       0.00000          20_20_00              null     600.00000  
                                                            plnt         9        25       0.00000              wwht              null       0.00000  
