hmd.cli: Relative humidity file names - file written by SWAT+ editor 2022-05-05 10:12:51.402815
filename
r451919.hmd
r451925.hmd
