pcp.cli: Precipitation file names - file written by SWAT+ editor 2022-05-05 10:12:51.620681
filename
p451919.pcp
p451925.pcp
