slr.cli: Solar radiation file names - file written by SWAT+ editor 2022-05-05 10:12:51.859822
filename
s451919.slr
s451925.slr
