tmp.cli: Temperature file names - file written by SWAT+ editor 2022-05-05 10:12:52.087377
filename
t451919.tmp
t451925.tmp
