weather-wgn.cli: written by SWAT+ editor v1.2.3 on 2022-05-05 10:13
448n919w                       44.80480     -91.87500     287.00000        32  
 tmp_max_ave   tmp_min_ave    tmp_max_sd    tmp_min_sd       pcp_ave        pcp_sd      pcp_skew       wet_dry       wet_wet      pcp_days       pcp_hhr       slr_ave       dew_ave       wnd_ave  
    -6.26284     -14.00170       6.92471       8.53903      46.79650       2.81415       4.47728       0.48810       0.38461      17.87500      11.63060       6.48576       0.87656       4.85062  
    -3.97721     -11.55390       6.50488       8.72140      44.56000       2.90326       4.03355       0.46857       0.42238      17.31250       8.95334       9.29282       0.89715       4.58949  
     2.70799      -4.93931       6.47978       6.99842      79.58900       4.91731       3.28116       0.45953       0.41872      19.03120      12.91210      11.74240       0.86775       4.50404  
    11.99570       1.82949       6.37851       5.17609     102.61900       6.84673       3.68905       0.40265       0.39961      15.87500      24.03500      16.07160       0.75214       4.35902  
    18.70310       7.42566       5.20980       4.96056     113.12000       6.86012       3.13426       0.38934       0.38966      15.71880      18.64090      20.48240       0.73623       3.80205  
    24.39780      12.43200       4.69652       4.52769     114.79700       8.50753       4.96745       0.38241       0.38429      14.71880      37.91920      23.43630       0.71906       3.38276  
    28.59780      14.87630       4.62649       3.92692      70.12820       5.64416       5.08252       0.33831       0.33419      12.15620      21.33250      23.85740       0.63762       3.09859  
    28.13780      13.78760       4.60717       4.18714      65.67560       6.63320       6.43167       0.25404       0.32154       9.71875      32.66270      20.47030       0.60413       3.11755  
    22.51790       9.47450       6.10868       5.13576      78.27250       7.71442       6.15695       0.27422       0.35613      10.96880      33.63780      15.21850       0.62591       3.67829  
    13.73030       3.61084       5.99161       5.17983      74.48250       5.94348       4.67561       0.29373       0.36010      12.06250      23.86070       9.75659       0.68119       4.31086  
     4.45259      -3.22415       6.28292       5.84954      71.25580       5.68929       4.92080       0.33595       0.39468      14.09380      26.14140       6.19720       0.78144       4.55881  
    -3.75129     -10.72580       6.64088       8.01566      51.07580       3.50755       4.99333       0.46226       0.40107      17.53120      14.90140       5.18147       0.86823       4.73745  
448n922w                       44.80480     -92.18750     305.00000        32  
 tmp_max_ave   tmp_min_ave    tmp_max_sd    tmp_min_sd       pcp_ave        pcp_sd      pcp_skew       wet_dry       wet_wet      pcp_days       pcp_hhr       slr_ave       dew_ave       wnd_ave  
    -6.18677     -14.03250       6.90280       8.56193      47.11740       2.81112       4.46018       0.49144       0.38765      18.21880      11.17930       6.46109       0.87870       4.82044  
    -3.89016     -11.53040       6.49573       8.73693      44.88140       2.91686       4.17550       0.48673       0.42301      17.65620       9.96572       9.22406       0.89943       4.56458  
     2.76168      -4.88819       6.46552       6.94657      80.88540       4.96746       3.30293       0.45822       0.42512      19.40620      14.10350      11.68150       0.86935       4.50299  
    12.06670       1.92977       6.41923       5.21024     101.90500       6.61867       3.31506       0.40225       0.39806      16.09380      20.63770      16.07030       0.75005       4.36021  
    18.76370       7.54708       5.26768       4.97602     111.99200       6.71965       3.06838       0.39308       0.39000      15.62500      21.46350      20.43190       0.73250       3.82829  
    24.53580      12.56590       4.75716       4.52700     113.69400       7.96240       4.19832       0.38969       0.38316      14.84380      28.44380      23.40390       0.71285       3.40883  
    28.78240      15.00530       4.66267       3.95149      71.95860       5.99088       5.53612       0.33443       0.33247      12.03120      24.22730      23.92850       0.63068       3.13324  
    28.30470      13.88810       4.65872       4.23102      66.71650       6.42212       5.61521       0.27071       0.30696       9.87500      28.21490      20.49000       0.59625       3.15891  
    22.64610       9.58414       6.15606       5.18221      79.44430       8.02897       6.85525       0.28760       0.35211      11.09380      35.94440      15.17970       0.61869       3.71691  
    13.85310       3.66346       6.05334       5.21719      73.92990       5.76755       4.25855       0.28974       0.36083      12.12500      21.17030       9.81743       0.67446       4.32826  
     4.47176      -3.23557       6.37643       5.89257      70.29430       5.62085       5.02273       0.34783       0.38766      14.18750      26.41900       6.21245       0.77955       4.54784  
    -3.71428     -10.77160       6.65625       7.99883      50.60020       3.47036       5.03848       0.44313       0.40853      17.59380      14.86540       5.16776       0.86876       4.71059  
448n925w                       44.80480     -92.50000     335.00000        32  
 tmp_max_ave   tmp_min_ave    tmp_max_sd    tmp_min_sd       pcp_ave        pcp_sd      pcp_skew       wet_dry       wet_wet      pcp_days       pcp_hhr       slr_ave       dew_ave       wnd_ave  
    -6.04882     -14.07930       6.86512       8.65696      46.92480       2.77185       4.60379       0.50623       0.38579      18.46880      12.29030       6.40960       0.88064       4.68545  
    -3.73861     -11.48940       6.46643       8.77268      44.64670       2.91732       4.52066       0.48802       0.42456      17.81250      11.90360       9.12192       0.90165       4.45454  
     2.86866      -4.79853       6.44699       6.88523      81.10910       5.02947       3.50435       0.46978       0.42038      19.62500      14.90080      11.64700       0.87020       4.44601  
    12.18880       2.09213       6.46635       5.24052      98.91530       6.35587       3.32339       0.38745       0.39357      15.56250      23.04040      16.14330       0.74580       4.32889  
    18.93220       7.77500       5.35542       4.96539     107.78400       6.49665       3.12507       0.37649       0.39059      15.28120      21.71350      20.44350       0.72397       3.84068  
    24.76390      12.79250       4.82353       4.49522     111.08700       7.84355       4.84870       0.37576       0.38710      14.53120      37.01980      23.42650       0.70305       3.42877  
    28.99570      15.22190       4.67794       3.95690      72.72030       6.25080       5.69313       0.33006       0.32632      11.87500      25.17050      24.05120       0.62245       3.16270  
    28.49590      14.06400       4.68878       4.23694      66.23550       6.13026       4.95574       0.25985       0.30293       9.59375      22.84480      20.53780       0.58780       3.19498  
    22.78650       9.74833       6.20316       5.23323      78.64500       8.07962       7.39949       0.30333       0.34722      11.25000      38.35600      15.17820       0.61083       3.74187  
    14.00090       3.77108       6.11265       5.24422      71.73740       5.54841       3.88669       0.28571       0.34840      11.75000      17.36830       9.89643       0.66697       4.30798  
     4.54539      -3.20241       6.44319       5.94365      68.43370       5.52472       5.05440       0.34247       0.38976      14.03120      25.79960       6.22880       0.77630       4.47427  
    -3.60799     -10.80380       6.65854       8.01167      49.49450       3.37847       5.06644       0.45606       0.39894      17.62500      14.19730       5.14187       0.86865       4.58833  
448n928w                       44.80480     -92.81250     262.00000        32  
 tmp_max_ave   tmp_min_ave    tmp_max_sd    tmp_min_sd       pcp_ave        pcp_sd      pcp_skew       wet_dry       wet_wet      pcp_days       pcp_hhr       slr_ave       dew_ave       wnd_ave  
    -5.79755     -13.80400       6.79384       8.59929      45.80260       2.66753       4.59057       0.49000       0.39189      18.50000      12.12690       6.14022       0.88254       4.36729  
    -3.43899     -11.06710       6.43798       8.55984      43.58460       2.86390       4.96852       0.47289       0.42657      17.87500      13.20860       8.68856       0.90186       4.18541  
     3.09431      -4.51082       6.40130       6.73705      79.04040       4.83529       3.38248       0.47154       0.42055      19.46880      14.69530      11.44960       0.86779       4.25588  
    12.41360       2.42292       6.50969       5.16696      95.37290       6.31783       3.58395       0.37895       0.39175      15.15620      23.59130      16.26450       0.73595       4.20357  
    19.25160       8.20575       5.47257       4.91419     101.98600       6.28364       3.21885       0.36822       0.39158      14.84380      20.38680      20.52270       0.70769       3.79717  
    25.11840      13.21470       4.88772       4.41306     106.85800       8.10487       6.73594       0.36274       0.37556      14.06250      47.98580      23.46840       0.68687       3.41376  
    29.25350      15.60780       4.69232       3.90406      71.66840       6.55159       6.23029       0.30638       0.30373      10.90620      28.41790      24.18610       0.61141       3.16683  
    28.72150      14.38710       4.69050       4.19947      64.28460       5.99059       5.27074       0.24138       0.31081       9.25000      25.61870      20.59740       0.57796       3.19873  
    22.97630      10.12090       6.22007       5.18893      75.16160       7.81837       7.55326       0.30464       0.34270      11.12500      38.07120      15.23740       0.60008       3.72143  
    14.19960       4.16966       6.15286       5.21066      67.77240       5.22032       3.70102       0.27911       0.35616      11.40620      14.65150      10.00030       0.65476       4.19510  
     4.70450      -2.93299       6.47315       5.93968      65.99580       5.48974       5.07608       0.33526       0.39002      13.78120      24.18760       6.22718       0.76759       4.27308  
    -3.36512     -10.57260       6.65982       7.97602      47.81250       3.23231       4.98121       0.45047       0.40107      17.53120      12.94760       4.98551       0.86536       4.29465  
451n919w                       45.11710     -91.87500     324.00000        32  
 tmp_max_ave   tmp_min_ave    tmp_max_sd    tmp_min_sd       pcp_ave        pcp_sd      pcp_skew       wet_dry       wet_wet      pcp_days       pcp_hhr       slr_ave       dew_ave       wnd_ave  
    -6.81362     -14.58930       7.02467       8.55251      48.47530       2.92873       4.86529       0.49265       0.39212      18.25000      13.48350       6.44471       0.87603       4.94013  
    -4.52404     -12.13960       6.59729       8.75987      45.24200       2.78823       3.67466       0.46884       0.41975      17.71880       8.21735       9.31739       0.89768       4.67194  
     2.12997      -5.47953       6.41198       6.99554      78.83710       4.69305       3.16891       0.47645       0.42631      19.71880      13.02690      11.79330       0.87257       4.57910  
    11.56020       1.32345       6.42803       5.14875     101.83800       6.68667       3.56275       0.40046       0.40918      16.34380      22.48310      16.07800       0.75295       4.43679  
    18.52440       6.96339       5.32093       4.97779     114.15900       6.82477       2.99977       0.39792       0.38943      15.96880      20.04320      20.39160       0.73049       3.89147  
    24.16620      11.95130       4.72424       4.52719     113.05900       8.08128       4.25859       0.38716       0.39623      14.90620      27.73000      23.23790       0.71576       3.47094  
    28.10300      14.46500       4.52407       3.80488      75.69690       5.97725       4.65686       0.33503       0.36139      12.62500      19.69950      23.76290       0.64667       3.15028  
    27.42250      13.36330       4.47748       4.09112      66.04950       6.03086       5.03587       0.27368       0.32722      10.21880      24.45860      20.36250       0.61974       3.16568  
    21.78680       9.08584       5.98176       5.06069      77.68120       6.90063       5.41671       0.29966       0.36968      11.75000      27.34070      15.05680       0.64438       3.73502  
    12.99540       3.16977       5.92741       5.09030      80.14660       6.20940       4.35876       0.28716       0.37000      12.50000      23.51890       9.54296       0.70246       4.37037  
     3.83246      -3.61033       6.12856       5.68461      70.56070       5.51668       5.09841       0.34959       0.39530      14.62500      26.42200       6.09722       0.79186       4.64806  
    -4.26620     -11.15920       6.63043       7.98180      52.78890       3.52973       4.78551       0.47160       0.40172      18.12500      14.25730       5.11225       0.87143       4.84026  
451n922w                       45.11710     -92.18750     349.00000        32  
 tmp_max_ave   tmp_min_ave    tmp_max_sd    tmp_min_sd       pcp_ave        pcp_sd      pcp_skew       wet_dry       wet_wet      pcp_days       pcp_hhr       slr_ave       dew_ave       wnd_ave  
    -6.78485     -14.70690       7.00991       8.66427      48.97080       2.90132       4.60235       0.50126       0.39496      18.59380      11.47560       6.39165       0.88169       4.89432  
    -4.48035     -12.17440       6.57983       8.87618      45.88710       2.76161       3.55351       0.51385       0.41796      18.09380       8.13684       9.20990       0.90287       4.64317  
     2.16199      -5.42079       6.41033       6.98770      80.56510       4.76037       3.15355       0.48159       0.42567      19.96880      13.22870      11.65350       0.87726       4.57604  
    11.54240       1.41602       6.40370       5.17984     100.89000       6.49610       3.24999       0.40724       0.40347      16.18750      20.37300      16.01910       0.75694       4.43075  
    18.35440       7.09184       5.26829       4.97971     115.51500       6.93216       3.08577       0.39709       0.39804      15.93750      22.30350      20.34230       0.73747       3.89202  
    24.05590      12.10780       4.75553       4.53070     114.43500       7.79248       4.20874       0.40000       0.38763      15.15620      32.84830      23.22500       0.71869       3.47411  
    28.18300      14.60730       4.64515       3.84834      79.00980       6.45839       5.35360       0.34465       0.35236      12.59380      27.75040      23.80710       0.64160       3.17187  
    27.66230      13.45520       4.57770       4.15535      68.36620       6.19574       5.10941       0.26687       0.32000      10.15620      25.23180      20.36570       0.60765       3.21241  
    21.98590       9.19658       6.08865       5.14080      79.03060       7.05086       5.86818       0.30796       0.36911      11.93750      30.38620      14.99270       0.63316       3.77897  
    13.17070       3.18837       6.02032       5.17508      78.98160       5.98329       3.94790       0.28885       0.36500      12.50000      19.49520       9.58889       0.69326       4.39170  
     3.83585      -3.72080       6.24056       5.82029      70.04340       5.50000       5.36358       0.34774       0.39873      14.81250      27.48430       6.09145       0.79264       4.62609  
    -4.27270     -11.30480       6.64760       8.05453      52.71000       3.49018       4.68108       0.46766       0.40652      18.21880      13.73340       5.07522       0.87635       4.79842  
451n925w                       45.11710     -92.50000     305.00000        32  
 tmp_max_ave   tmp_min_ave    tmp_max_sd    tmp_min_sd       pcp_ave        pcp_sd      pcp_skew       wet_dry       wet_wet      pcp_days       pcp_hhr       slr_ave       dew_ave       wnd_ave  
    -6.61634     -14.65490       6.97384       8.74565      47.95740       2.82335       4.62578       0.48995       0.39562      18.56250      12.35220       6.33208       0.88305       4.75787  
    -4.29118     -12.00370       6.54871       8.91131      45.30320       2.71625       3.56894       0.50464       0.42169      18.15620       8.16568       9.08995       0.90350       4.54144  
     2.32981      -5.22910       6.39152       6.92869      80.29210       4.77496       3.22696       0.48000       0.42835      20.06250      12.76940      11.58200       0.87590       4.52311  
    11.72370       1.65349       6.43108       5.19017      98.13200       6.33530       3.10353       0.38731       0.40557      15.71880      16.93220      16.08110       0.75182       4.39859  
    18.55840       7.38594       5.33387       4.96175     111.74300       6.87150       3.19883       0.38632       0.39069      15.43750      21.80480      20.38230       0.73007       3.88471  
    24.31880      12.41450       4.81953       4.47499     112.06000       7.79923       5.23443       0.38320       0.38136      14.75000      40.91970      23.27370       0.70958       3.47351  
    28.46160      14.91660       4.68096       3.83175      78.17610       6.73203       5.99635       0.34171       0.34177      12.34380      31.60520      23.91230       0.63179       3.18399  
    27.94600      13.69480       4.62252       4.16474      68.16440       6.20053       5.18787       0.26647       0.31790      10.12500      25.32440      20.41440       0.59652       3.24051  
    22.21700       9.40191       6.14482       5.17092      76.62240       6.90125       6.12892       0.32062       0.35248      11.96880      30.43070      14.99840       0.62238       3.79443  
    13.40630       3.35931       6.08715       5.20452      74.82930       5.62756       3.78103       0.29661       0.37065      12.56250      16.54220       9.66687       0.68295       4.36746  
     3.95915      -3.65257       6.30807       5.89398      67.74570       5.42220       5.51447       0.34141       0.39785      14.53120      27.09440       6.10678       0.78805       4.54628  
    -4.14044     -11.27660       6.65028       8.08596      51.18580       3.38758       4.63002       0.45792       0.40964      18.15620      12.54380       5.05009       0.87516       4.67573  
451n928w                       45.11710     -92.81250     283.00000        32  
 tmp_max_ave   tmp_min_ave    tmp_max_sd    tmp_min_sd       pcp_ave        pcp_sd      pcp_skew       wet_dry       wet_wet      pcp_days       pcp_hhr       slr_ave       dew_ave       wnd_ave  
    -6.29488     -14.31000       6.89161       8.71806      45.57270       2.67447       4.52777       0.50000       0.38814      18.43750      11.83970       6.16215       0.88137       4.48363  
    -3.93783     -11.51620       6.50433       8.69826      43.08210       2.60902       3.73546       0.48936       0.42261      17.96880       9.26306       8.79116       0.90073       4.31247  
     2.64293      -4.85968       6.35051       6.80499      76.58890       4.57063       3.11642       0.44837       0.42789      19.50000      12.75650      11.46560       0.86991       4.36050  
    12.04010       2.07225       6.45889       5.10934      92.94710       6.18305       3.27091       0.38478       0.39836      15.21880      18.81510      16.26480       0.73956       4.28495  
    18.94650       7.85698       5.41583       4.92397     102.97100       6.59535       3.34673       0.36641       0.37687      14.59380      18.96890      20.53100       0.71402       3.82981  
    24.74490      12.84250       4.89207       4.40712     106.44300       7.92602       6.35214       0.36739       0.37251      14.09380      45.63250      23.37120       0.69369       3.43734  
    28.88800      15.37390       4.71543       3.78652      74.39820       6.77337       6.17520       0.31511       0.33514      11.56250      28.21310      24.05290       0.61654       3.17234  
    28.34030      14.13440       4.62736       4.11433      64.51610       5.96295       5.21440       0.26170       0.29870       9.62500      24.78060      20.47640       0.58181       3.23146  
    22.54060       9.81385       6.17316       5.13287      70.50900       6.52224       6.23057       0.30457       0.35772      11.53120      27.91690      15.07520       0.60840       3.75900  
    13.71700       3.79070       6.12272       5.17134      68.60850       5.28879       4.10858       0.29654       0.35065      12.03120      20.32590       9.78392       0.66809       4.25878  
     4.19715      -3.33622       6.32731       5.89327      64.09470       5.30443       5.32047       0.32812       0.39062      14.00000      24.70730       6.13217       0.77721       4.36335  
    -3.83543     -10.94970       6.63931       8.03870      47.85360       3.21767       4.65784       0.43333       0.40354      17.65620      10.96970       4.95461       0.86737       4.42300  
454n919w                       45.42930     -91.87500     352.00000        32  
 tmp_max_ave   tmp_min_ave    tmp_max_sd    tmp_min_sd       pcp_ave        pcp_sd      pcp_skew       wet_dry       wet_wet      pcp_days       pcp_hhr       slr_ave       dew_ave       wnd_ave  
    -7.24190     -15.28600       7.10345       8.81663      47.44370       2.90474       5.21452       0.50000       0.39310      18.12500      14.07590       6.42553       0.87631       4.95137  
    -4.94394     -12.86240       6.64909       9.06526      43.53610       2.58349       3.32261       0.47368       0.42527      17.56250       6.50682       9.39685       0.89846       4.69710  
     1.56782      -6.02025       6.34801       7.11553      74.52690       4.27325       3.12496       0.48305       0.42163      19.93750      12.26200      11.93470       0.87944       4.61921  
    11.14190       0.92862       6.49660       5.15140      96.97290       6.29065       3.34159       0.39546       0.41346      16.25000      20.22520      16.14130       0.75306       4.50429  
    18.25230       6.59838       5.39503       5.03004     113.00200       6.91812       3.26881       0.40919       0.39062      16.00000      19.45320      20.43080       0.72435       3.98170  
    23.85750      11.47030       4.74315       4.59081     104.36900       7.36733       5.05128       0.40501       0.38046      15.03120      33.25810      23.11970       0.71310       3.57620  
    27.68320      14.11740       4.51217       3.85058      76.98100       6.41867       5.70506       0.32442       0.35279      12.31250      30.45410      23.66510       0.64953       3.23942  
    26.92540      13.01440       4.40703       4.12565      59.53210       5.29413       4.94487       0.26457       0.32817      10.09380      21.19560      20.30880       0.62592       3.26386  
    21.23840       8.80993       5.91938       5.05077      73.10120       6.01646       4.31164       0.30450       0.35864      11.93750      18.21670      14.93670       0.65472       3.83316  
    12.44080       2.92502       5.87798       5.03947      79.61530       6.09935       4.44005       0.30070       0.37381      13.12500      24.72770       9.37101       0.71420       4.45446  
     3.36366      -3.93890       6.03790       5.71018      66.49160       5.14228       5.29913       0.35185       0.39662      14.81250      25.62720       6.04928       0.79779       4.72584  
    -4.66233     -11.64510       6.61674       8.08110      51.80450       3.36468       4.41840       0.47433       0.40104      18.00000      11.71830       5.07564       0.87400       4.88943  
454n922w                       45.42930     -92.18750     365.00000        32  
 tmp_max_ave   tmp_min_ave    tmp_max_sd    tmp_min_sd       pcp_ave        pcp_sd      pcp_skew       wet_dry       wet_wet      pcp_days       pcp_hhr       slr_ave       dew_ave       wnd_ave  
    -7.17637     -15.28340       7.08475       8.85160      47.02510       2.82041       4.59204       0.50246       0.39761      18.31250      10.80020       6.38063       0.88036       4.89096  
    -4.84189     -12.72480       6.63141       9.09117      43.41530       2.53931       3.25265       0.50898       0.41754      17.81250       6.61077       9.29157       0.90134       4.66173  
     1.68479      -5.84470       6.34743       7.08580      74.59860       4.32756       3.21107       0.50281       0.41824      19.87500      13.10590      11.81520       0.88182       4.60111  
    11.20010       1.09357       6.45785       5.17651      95.57770       6.25058       3.29807       0.40708       0.40748      15.87500      18.23770      16.14640       0.75549       4.48071  
    18.15920       6.82364       5.32072       5.01148     113.50900       7.06251       3.35199       0.39425       0.39286      15.75000      19.47480      20.49190       0.73078       3.95413  
    23.79170      11.70360       4.77724       4.55700     103.96200       6.87994       4.01952       0.40084       0.38272      15.18750      25.23360      23.23300       0.71598       3.55051  
    27.85730      14.35660       4.64267       3.86395      77.80070       6.69203       6.61710       0.32776       0.35533      12.31250      37.49080      23.74190       0.64258       3.23422  
    27.29210      13.18280       4.51700       4.17384      59.78350       5.31087       4.95271       0.25778       0.31861       9.90625      21.26700      20.32240       0.61102       3.28778  
    21.55920       8.95320       6.02577       5.11766      72.10190       5.87982       4.25285       0.31065       0.37209      12.09380      17.34550      14.91160       0.64045       3.85469  
    12.71760       2.99619       5.97486       5.12497      77.72720       5.94336       4.23710       0.29412       0.36232      12.93750      21.46050       9.43461       0.70199       4.45308  
     3.44117      -3.98220       6.14333       5.83654      65.18910       5.14747       5.64583       0.35583       0.40127      14.71880      26.74290       6.06096       0.79652       4.68084  
    -4.62598     -11.71360       6.63661       8.14860      50.89730       3.32651       4.37317       0.46763       0.39261      17.75000      10.91560       5.05086       0.87721       4.83059  
454n925w                       45.42930     -92.50000     366.00000        32  
 tmp_max_ave   tmp_min_ave    tmp_max_sd    tmp_min_sd       pcp_ave        pcp_sd      pcp_skew       wet_dry       wet_wet      pcp_days       pcp_hhr       slr_ave       dew_ave       wnd_ave  
    -6.96839     -15.10800       7.03023       8.86097      45.44310       2.73254       4.68237       0.49144       0.39108      18.21880      11.87210       6.34110       0.88000       4.75885  
    -4.60378     -12.39940       6.59805       9.03810      42.15960       2.47990       3.31879       0.49258       0.41270      17.71880       6.86131       9.19552       0.89980       4.56594  
     1.94062      -5.56680       6.33874       7.04479      73.24890       4.37437       3.41411       0.48209       0.42130      19.65620      14.98700      11.76110       0.87752       4.53889  
    11.44450       1.39761       6.46583       5.17361      92.56480       6.20642       3.33709       0.37844       0.40657      15.21880      16.20880      16.25850       0.74889       4.43189  
    18.43270       7.18778       5.35505       4.98132     108.55700       6.89537       3.37760       0.38723       0.38980      15.31250      19.34140      20.61370       0.72344       3.92103  
    24.10860      12.03890       4.83949       4.49470     100.27100       6.67562       3.90820       0.38431       0.38661      14.46880      25.00230      23.35880       0.70737       3.52125  
    28.21670      14.66860       4.69698       3.82711      74.54810       6.61138       7.05617       0.31270       0.34392      11.81250      37.94270      23.85900       0.63175       3.21755  
    27.70550      13.46680       4.56616       4.15591      58.99430       5.24922       4.77292       0.24528       0.30363       9.46875      20.08460      20.36840       0.59697       3.28964  
    21.89760       9.20707       6.09128       5.12822      69.12510       5.71684       4.52213       0.31707       0.37047      12.06250      21.40460      14.93900       0.62644       3.84593  
    13.04060       3.24373       6.03566       5.13538      73.53490       5.72062       4.45690       0.29661       0.35572      12.56250      21.70080       9.53216       0.68853       4.40757  
     3.61643      -3.82446       6.20110       5.87954      62.41280       5.09026       5.83579       0.32934       0.39216      14.34380      26.66180       6.08871       0.79002       4.58703  
    -4.44958     -11.57900       6.64323       8.16465      48.64780       3.24639       4.44972       0.46028       0.38600      17.40620      10.10180       5.04112       0.87395       4.70729  
454n928w                       45.42930     -92.81250     287.00000        32  
 tmp_max_ave   tmp_min_ave    tmp_max_sd    tmp_min_sd       pcp_ave        pcp_sd      pcp_skew       wet_dry       wet_wet      pcp_days       pcp_hhr       slr_ave       dew_ave       wnd_ave  
    -6.67148     -14.75400       6.94740       8.80254      42.77330       2.57729       4.50661       0.47907       0.38256      17.56250      11.05800       6.27335       0.87699       4.54337  
    -4.27191     -11.93160       6.55218       8.83473      40.08640       2.41458       3.66332       0.47550       0.41293      17.40620       8.52557       9.06839       0.89545       4.38527  