wnd.cli: Wind speed file names - file written by SWAT+ editor 2022-05-05 10:12:52.411507
filename
w451919.wnd
w451925.wnd
